%%%%%%%%%%%%%%%%%%%%%%%%%%%%%%%%%%%%%%%%%%%%%%%%%%%%%%%%%%%%%%%%%%%%%%%%%%%%%%%%
%                                                                              %
% SU2 configuration file                                                       %
% Author: Nathanael Jenkins                                                    %
% Institution: Imperial College London                                         %
% Date Created: 02.09.2021                                                     %
% Date Amended: 02.09.2021                                                     %
%                                                                              %
%%%%%%%%%%%%%%%%%%%%%%%%%%%%%%%%%%%%%%%%%%%%%%%%%%%%%%%%%%%%%%%%%%%%%%%%%%%%%%%%

% -------------------------------- DESCRIPTION --------------------------------%
% ASCENSION Concept Development, August 2021
% TEST 1
%
% Subsonic, steady case
% V = 100

% ------------- DIRECT, ADJOINT, AND LINEARIZED PROBLEM DEFINITION ------------%
SOLVER= RANS
KIND_TURB_MODEL= SST
KIND_TRANS_MODEL= NONE
KIND_SGS_MODEL= NONE
KIND_VERIFICATION_SOLUTION= NO_VERIFICATION_SOLUTION
MATH_PROBLEM= DIRECT
AXISYMMETRIC= NO
RESTART_SOL= NO
DISCARD_INFILES= NO
SYSTEM_MEASUREMENTS= SI

% ------------------------------- SOLVER CONTROL ------------------------------%
ITER= 999
CONV_FIELD= RMS_DENSITY
CONV_RESIDUAL_MINVAL= -8
CONV_STARTITER= 10
WINDOW_CAUCHY_CRIT = NO

% ------------------------- TIME-DEPENDENT SIMULATION -------------------------------%
TIME_DOMAIN= NO

% -------------------- COMPRESSIBLE FREE-STREAM DEFINITION --------------------%
MACH_NUMBER= 0.3
AOA= 0.0
SIDESLIP_ANGLE= 0.0
INIT_OPTION= REYNOLDS
FREESTREAM_OPTION= TEMPERATURE_FS
FREESTREAM_PRESSURE= 101325.0
FREESTREAM_TEMPERATURE= 288.15
FREESTREAM_TEMPERATURE_VE= 288.1
REYNOLDS_NUMBER= 200000
REYNOLDS_LENGTH= 0.046
FREESTREAM_VELOCITY= ( 100.0, 0.00, 0.00 )
FREESTREAM_VISCOSITY= 1.853E-5
FREESTREAM_TURBULENCEINTENSITY= 0.05
FREESTREAM_TURB2LAMVISCRATIO= 10.0
REF_DIMENSIONALIZATION= FREESTREAM_PRESS_EQ_ONE

% ----------------------------- CL DRIVER DEFINITION ---------------------------%
FIXED_CL_MODE= NO

% ---------------------- REFERENCE VALUE DEFINITION ---------------------------%
REF_ORIGIN_MOMENT_X = -0.25
REF_ORIGIN_MOMENT_Y = 0.00
REF_ORIGIN_MOMENT_Z = 0.00
REF_LENGTH= 0.046
REF_AREA= 1.66e-3
SEMI_SPAN= 0.0

% ---- NONEQUILIBRIUM GAS, IDEAL GAS, POLYTROPIC, VAN DER WAALS AND PENG ROBINSON CONSTANTS -------%
FLUID_MODEL= STANDARD_AIR
GAMMA_VALUE= 1.4
GAS_CONSTANT= 287.058
CRITICAL_TEMPERATURE= 131.00
CRITICAL_PRESSURE= 3588550.0
ACENTRIC_FACTOR= 0.035
SPECIFIC_HEAT_CP= 1004.703
MOLECULAR_WEIGHT= 28.96

% --------------------------- VISCOSITY MODEL ---------------------------------%
VISCOSITY_MODEL= SUTHERLAND
MU_REF= 1.716E-5
MU_T_REF= 273.15
SUTHERLAND_CONSTANT= 110.4
MU_POLYCOEFFS= (0.0, 0.0, 0.0, 0.0, 0.0)

% ----------------------- DYNAMIC MESH DEFINITION -----------------------------%
GRID_MOVEMENT= NONE

% -------------------- BOUNDARY CONDITION DEFINITION --------------------------%
MARKER_ISOTHERMAL= ( wall, 273.0 )
MARKER_FAR= ( farfield )
MARKER_SYM= ( symm )
INLET_TYPE= VELOCITY_INLET
MARKER_INLET= ( inlet, 300, 100, 1.0, 0.0, 0.0 )
MARKER_OUTLET= ( outlet, 101325 )

% ------------------------ SURFACES IDENTIFICATION ----------------------------%
MARKER_PLOTTING = ( wall )
MARKER_MONITORING = ( wall )
MARKER_WALL_FUNCTIONS= ( wall, STANDARD_WALL_FUNCTION )

% ------------- COMMON PARAMETERS DEFINING THE NUMERICAL METHOD ---------------%
NUM_METHOD_GRAD= GREEN_GAUSS
CFL_NUMBER= 15.0
CFL_ADAPT= NO

% ------------------------ LINEAR SOLVER DEFINITION ---------------------------%
LINEAR_SOLVER= FGMRES
LINEAR_SOLVER_ERROR= 1E-6

% -------------------------- MULTIGRID PARAMETERS -----------------------------%
MGLEVEL= 0

% -------------------- FLOW NUMERICAL METHOD DEFINITION -----------------------%
CONV_NUM_METHOD_FLOW= ROE
ROE_LOW_DISSIPATION= FD
LOW_MACH_CORR= NO
LOW_MACH_PREC= NO
USE_ACCURATE_FLUX_JACOBIANS= NO
USE_VECTORIZATION= NO
ENTROPY_FIX_COEFF= 0.0
TIME_DISCRE_FLOW= EULER_IMPLICIT

% -------------------- TURBULENT NUMERICAL METHOD DEFINITION ------------------%
CONV_NUM_METHOD_TURB= SCALAR_UPWIND

% --------------------- HEAT NUMERICAL METHOD DEFINITION ----------------------%
THERMAL_DIFFUSIVITY= 1.0

% ------------------------- SCREEN/HISTORY VOLUME OUTPUT --------------------------%
SCREEN_OUTPUT= (ITER, RMS_DENSITY, RMS_MOMENTUM-X, RMS_MOMENTUM-Y, RMS_ENERGY, CD, CL)
VOLUME_OUTPUT= (COORDINATES, SOLUTION, PRIMITIVE)
SCREEN_WRT_FREQ_TIME= 1

% ------------------------- INPUT/OUTPUT FILE INFORMATION --------------------------%
MESH_FILENAME= mesh.su2
MESH_FORMAT= SU2
SOLUTION_FILENAME= solution_flow.dat
TABULAR_FORMAT= TECPLOT
OUTPUT_FILES= (PARAVIEW, SURFACE_PARAVIEW, STL)
BREAKDOWN_FILENAME= forces_breakdown.dat
VOLUME_FILENAME= flow
SURFACE_FILENAME= surface_flow
